Circuit: * N:\Articles\Projects\VCO DIY Synth\Spice\vco.asc

WARNING: Specified period is not longer than the sum of Trise, Tfall, and Ton for v4.  Increasing period to 0.001
Limiting fall time of source v4 to 1.95156e-019
WARNING: Less than two connections to node TUNE.  This node is used by R3.
WARNING: Less than two connections to node NC_01.  This node is used by V4.
V5: Missing value, assumed 0V @ DC
Per .tran options, skipping operating point for transient analysis.

Date: Mon Jul 04 20:13:55 2016
Total elapsed time: 2.284 seconds.

tnom = 27
temp = 27
method = modified trap
totiter = 46635
traniter = 46635
tranpoints = 18361
accept = 15692
rejected = 2669
matrix size = 36
fillins = 7
solver = Normal
Matrix Compiler1: 2.23 KB object code size  1.7/1.3/[0.6]
Matrix Compiler2: 3.46 KB object code size  1.0/1.4/[0.8]


